FoamFile
{
    format      ascii;
    class       dictionary;
    location    "constant";
    object      phaseProperties;
}

phases          (oil vapour);

sigma           0.03;
